#======================================================================

# CRYSTAL DATA

#----------------------------------------------------------------------

data_VESTA_phase_1


_pd_phase_name                         'MA-Pb-I                               '
_cell_length_a                         6.29012
_cell_length_b                         6.27389
_cell_length_c                         6.29704
_cell_angle_alpha                      90.00140
_cell_angle_beta                       90.36093
_cell_angle_gamma                      89.99929
_symmetry_space_group_name_H-M         'P 1'
_symmetry_Int_Tables_number            1

loop_
_symmetry_equiv_pos_as_xyz
   'x, y, z'

loop_
   _atom_site_label
   _atom_site_occupancy
   _atom_site_fract_x
   _atom_site_fract_y
   _atom_site_fract_z
   _atom_site_adp_type
   _atom_site_B_iso_or_equiv
   _atom_site_type_symbol
   C1         1.0     0.902780      0.999963      0.996335     Biso  1.000000 C
   N1         1.0     0.136583      0.999827      0.024878     Biso  1.000000 N
   H1         1.0     0.864508      0.999713      0.825735     Biso  1.000000 H
   H2         1.0     0.837794      0.143757      0.071928     Biso  1.000000 H
   H3         1.0     0.837589      0.856516      0.072383     Biso  1.000000 H
   H4         1.0     0.207588      0.134274      0.958134     Biso  1.000000 H
   H5         1.0     0.207393      0.865063      0.958497     Biso  1.000000 H
   H6         1.0     0.182013      0.000003      0.185353     Biso  1.000000 H
   Pb1        1.0     0.476171      0.500031      0.475647     Biso  1.000000 Pb
   I1         1.0     0.426803      0.499883      0.972609     Biso  1.000000 I
   I2         1.0     0.435860      0.000045      0.506542     Biso  1.000000 I
   I3         1.0     0.962898      0.500227      0.447747     Biso  1.000000 I
