#======================================================================

# CRYSTAL DATA

#----------------------------------------------------------------------

data_VESTA_phase_1


_pd_phase_name                         'A-Pb-I                               '
_cell_length_a                         6.21138
_cell_length_b                         6.21209
_cell_length_c                         6.21699
_cell_angle_alpha                      90.62399
_cell_angle_beta                       89.43101
_cell_angle_gamma                      89.39435
_symmetry_space_group_name_H-M         'P 1'
_symmetry_Int_Tables_number            1

loop_
_symmetry_equiv_pos_as_xyz
   'x, y, z'

loop_
   _atom_site_label
   _atom_site_occupancy
   _atom_site_fract_x
   _atom_site_fract_y
   _atom_site_fract_z
   _atom_site_adp_type
   _atom_site_B_iso_or_equiv
   _atom_site_type_symbol
   N1         1.0     0.003994     -0.001119      1.003043     Biso  1.000000 N
   H1         1.0     0.894583      0.108106      0.940583     Biso  1.000000 H
   H2         1.0     0.966605      0.844931      0.950708     Biso  1.000000 H
   H3         1.0    -0.003367      1.006113      0.169519     Biso  1.000000 H
   H4         1.0     0.157918      0.036731      0.951099     Biso  1.000000 H
   Pb1        1.0     0.497047      0.503614      0.493781     Biso  1.000000 Pb
   I1         1.0     0.490080      0.510599      0.993689     Biso  1.000000 I
   I2         1.0     0.508911      0.003443      0.496579     Biso  1.000000 I
   I3         1.0     0.997230      0.491582      0.495999     Biso  1.000000 I
